#TargetFrameworkVersion=v4.0:PlatformToolSet=v120:EnableManagedIncrementalBuild=false:VCToolArchitecture=Native32Bit
Release|Win32|\\banner.main.ad.rit.edu\students\sxt5244\IGMProfile\Documents\My stuff\Tutorials\Current\Fluid HydroDynamics\|
