#TargetFrameworkVersion=v4.0:PlatformToolSet=v120:EnableManagedIncrementalBuild=false:VCToolArchitecture=Native32Bit
Release|Win32|C:\Users\Luna\Programming Projects\IGMTutorial\Graphics\Fluids\Fluid HydroDynamics\|
